Circuit: * C:\Users\capta\OneDrive - Lehigh University\Formula SAE\Tractive Light\LM393Test.asc

Error on line 5 : r1 n001 n004 r
	 Unable to find definition of model "r"
Error on line 6 : r2 n004 0 r
	 Unable to find definition of model "r"
Fatal Error: Missing resistance value for "R2"
